data_generated_by_bilbao_crystallographic_server

_cell_length_a                   10.4424 
_cell_length_b                   10.4424 
_cell_length_c                   10.4424 
_cell_angle_alpha                84.64 
_cell_angle_beta                 84.64 
_cell_angle_gamma                84.64        
_symmetry_space_group_name_H-M   'I2_13' 
_symmetry_Int_Tables_number      199 

loop_
_symmetry_equiv_pos_site_id
_symmetry_equiv_pos_as_xyz
1    'x,y,z'
2    '-x+1/2,-y,z+1/2'
3    '-x,y+1/2,-z+1/2'
4    'x+1/2,-y+1/2,-z'
5    'z,x,y'
6    'z+1/2,-x+1/2,-y'
7    '-z+1/2,-x,y+1/2'
8    '-z,x+1/2,-y+1/2'
9    'y,z,x'
10   '-y,z+1/2,-x+1/2'
11   'y+1/2,-z+1/2,-x'
12   '-y+1/2,-z,x+1/2'
13   'x+1/2,y+1/2,z+1/2'
14   '-x,-y+1/2,z'
15   '-x+1/2,y,-z'
16   'x,-y,-z+1/2'
17   'z+1/2,x+1/2,y+1/2'
18   'z,-x,-y+1/2'
19   '-z,-x+1/2,y'
20   '-z+1/2,x,-y'
21   'y+1/2,z+1/2,x+1/2'
22   '-y+1/2,z,-x'
23   'y,-z,-x+1/2'
24   '-y,-z+1/2,x'

loop_
_atom_site_label 
_atom_site_type_symbol 
_atom_site_symmetry_multiplicity 
_atom_site_Wyckoff_symbol 
_atom_site_fract_x 
_atom_site_fract_y 
_atom_site_fract_z 
Ba1  Ba ? ?  0.87500  0.87500  0.87500
Mn2  Mn ? ?  0.12500  0.12500  0.12500
H3    H ? ?  0.08979  0.07565  0.44287
H9    H ? ?  0.76223  0.01890  0.60936
H10   H ? ?  0.90246  0.17999  0.50417
C11   C ? ?  0.03518  0.02537  0.59190
C12   C ? ?  0.12687  0.75557  0.80560
Br15 Br ? ?  0.50000  0.75000  0.88736
O17   O ? ?  0.06069  0.76469  0.73843
O18   O ? ?  0.92514  0.05337  0.64649
