data_generated_by_bilbao_crystallographic_server

_cell_length_a                   14.0618 
_cell_length_b                   14.0618 
_cell_length_c                   9.8513 
_cell_angle_alpha                90.00 
_cell_angle_beta                 90.00 
_cell_angle_gamma                120.00        
_symmetry_space_group_name_H-M   'R32' 
_symmetry_Int_Tables_number      155 

loop_
_symmetry_equiv_pos_site_id
_symmetry_equiv_pos_as_xyz
1    'x,y,z'
2    '-y,x-y,z'
3    '-x+y,-x,z'
4    'y,x,-z'
5    'x-y,-y,-z'
6    '-x,-x+y,-z'
7    'x+2/3,y+1/3,z+1/3'
8    '-y+2/3,x-y+1/3,z+1/3'
9    '-x+y+2/3,-x+1/3,z+1/3'
10   'y+2/3,x+1/3,-z+1/3'
11   'x-y+2/3,-y+1/3,-z+1/3'
12   '-x+2/3,-x+y+1/3,-z+1/3'
13   'x+1/3,y+2/3,z+2/3'
14   '-y+1/3,x-y+2/3,z+2/3'
15   '-x+y+1/3,-x+2/3,z+2/3'
16   'y+1/3,x+2/3,-z+2/3'
17   'x-y+1/3,-y+2/3,-z+2/3'
18   '-x+1/3,-x+y+2/3,-z+2/3'

loop_
_atom_site_label 
_atom_site_type_symbol 
_atom_site_symmetry_multiplicity 
_atom_site_Wyckoff_symbol 
_atom_site_fract_x 
_atom_site_fract_y 
_atom_site_fract_z 
Ba1  Ba ? ?  0.33333  0.66667  0.66667
Mn2  Mn ? ?  0.33333  0.66667  0.16667
H3    H ? ?  0.14471  0.28488  0.68490
H4    H ? ?  0.17988  0.36299  0.53620
H7    H ? ?  0.00387  0.33720  0.66667
H8    H ? ?  0.09748  0.43081  0.66667
H10   H ? ?  0.36605  0.33674  0.57004
C11   C ? ?  0.18388  0.36739  0.64704
C13   C ? ?  0.07917  0.41250  0.66667
C14   C ? ?  0.33333  0.40927  0.66667
Br15 Br ? ?  0.42431  0.71228  0.35016
O17   O ? ?  0.10935  0.55365  0.64995
